LTspice 24.0.12 for Windows
Circuit: * C:\Users\santi\OneDrive\Documentos\Proyectos_Guitarra\Simulaciones\Draft1.asc
Start Time: Tue Mar 17 12:01:10 2026
solver = Normal
Maximum thread count: 12
tnom = 27
temp = 27
method = modified trap
WARNING: Node N005 is floating.
WARNING: Node NC_02 is floating.
WARNING: Node NC_01 is floating.
WARNING: Node NC_07 is floating.
WARNING: Node NC_06 is floating.

WARNING: Less than two connections to node nc_02.  This node is used by j:u3:1.
WARNING: Less than two connections to node nc_01.  This node is used by j:u3:2.
WARNING: Less than two connections to node nc_07.  This node is used by j:u4:1.
WARNING: Less than two connections to node nc_06.  This node is used by j:u4:2.
Early termination of direct N-R iteration.
Direct Newton iteration failed to find .op point.  (Use ".option noopiter" to skip.)
Starting Gmin stepping
Gmin = 10
vernier = 0.5
vernier = 0.25
vernier = 0.125
Gmin = 5.5165
vernier = 0.0625
vernier = 0.03125
vernier = 0.015625
vernier = 0.0078125
Gmin = 5.49501
vernier = 0.00390625
vernier = 0.00195312
vernier = 0.000976562
vernier = 0.000488281
Gmin = 5.50104
Gmin = 0
Gmin stepping failed

Starting source stepping with srcstepmethod=0
Source Step = 3.0303%
Source Step = 33.3333%
Source Step = 63.6364%
Source Step = 93.9394%
Source Step = 96.9815%
Source Step = 97.0111%
Source Step = 97.0407%
Source Step = 97.0703%
Source Step = 97.0999%
vernier = 0.00146484
Source Step = 97.1325%
Source Step = 97.1768%
Source Step = 97.2212%
Source Step = 97.2656%
Source Step = 97.31%
vernier = 0.00219727
Source Step = 97.3566%
Source Step = 97.4232%
Source Step = 97.4898%
Source Step = 97.5564%
Source Step = 97.623%
Source Step = 97.6895%
vernier = 0.0032959
Source Step = 97.7894%
Source Step = 97.8893%
Source Step = 97.9892%
Source Step = 98.089%
Source Step = 98.1889%
vernier = 0.00494385
Source Step = 98.3337%
Source Step = 98.4836%
Source Step = 98.6334%
Source Step = 98.7832%
Source Step = 98.933%
vernier = 0.00741577
Source Step = 99.1427%
Source Step = 99.3675%
Source Step = 99.5922%
Source Step = 99.8169%
Source stepping succeeded in finding the operating point.

Total elapsed time: 0.711 seconds.

