LTspice 24.0.12 for Windows
Circuit: * C:\Users\santi\OneDrive\Documentos\Proyectos_Guitarra\Overdrive-guitar-pedal-project\Simulaciones\Overdrive_simple.asc
Start Time: Wed May  6 17:13:38 2026
solver = Normal
Maximum thread count: 12
tnom = 27
temp = 27
method = modified trap
WARNING: Node N006 is floating.

WARNING: Less than two connections to node n006.  This node is used by c2.
Early termination of direct N-R iteration.
Direct Newton iteration failed to find .op point.  (Use ".option noopiter" to skip.)
Starting Gmin stepping
Gmin = 10
vernier = 0.5
vernier = 0.25
vernier = 0.125
Gmin = 5.5165
vernier = 0.0625
vernier = 0.03125
vernier = 0.015625
vernier = 0.0078125
Gmin = 5.49501
vernier = 0.00390625
vernier = 0.00195312
vernier = 0.000976562
vernier = 0.000488281
Gmin = 5.50104
Gmin = 0
Gmin stepping succeeded in finding the operating point.

Total elapsed time: 0.196 seconds.

